/*--------------------------------*- C++ -*----------------------------------*\
  =========                 |
  \\      /  F ield         | OpenFOAM: The Open Source CFD Toolbox
   \\    /   O peration     | Website:  https://openfoam.org
    \\  /    A nd           | Version:  7
     \\/     M anipulation  |
\*---------------------------------------------------------------------------*/
FoamFile
{
    version     2.0;
    format      ascii;
    class       polyBoundaryMesh;
    location    "constant/polyMesh";
    object      boundary;
}
// * * * * * * * * * * * * * * * * * * * * * * * * * * * * * * * * * * * * * //

6
(
    inlet
    {
        type            patch;
        nFaces          128;
        startFace       146752;
    }
    outlet
    {
        type            patch;
        nFaces          128;
        startFace       146880;
    }
    bottom
    {
        type            symmetryPlane;
        inGroups        List<word> 1(symmetryPlane);
        nFaces          96;
        startFace       147008;
    }
    top
    {
        type            symmetryPlane;
        inGroups        List<word> 1(symmetryPlane);
        nFaces          96;
        startFace       147104;
    }
    obstacle
    {
        type            patch;
        nFaces          960;
        startFace       147200;
    }
    defaultFaces
    {
        type            empty;
        inGroups        List<word> 1(empty);
        nFaces          147456;
        startFace       148160;
    }
)

// ************************************************************************* //
